-------------------------------------------------------
          Amber 22 SANDER                              2022
          -------------------------------------------------------

  [-O]verwriting output

File Assignments:

 Here is the input file:

NPT heating with restraints
 &cntrl
  imin  = 0,    ntx = 5,      irest = 1,            !Don't do minimization, read coordinates and velocities from restarts file
  nstlim=1000, dt = 0.004,                       !run for 1000 steps, 4 fs timestep, 1ns
  temp0 = 300,                                      !temperature
  ntpr = 10,  ntwr = 25,  ntwx = 25,          !frequency for outputs of energy, restarts, and trajectory
  ntf = 2,	ntc = 2,                            !SHAKE
  cut = 10.0,                                       !cutoff
  ntb = 2, ntp = 1, tautp = 1.0, taup = 1.0,        !Constant pressure
  barostat = 1,                                     !Berendsen barostat, may change to 2 for MC
  ntt = 3,      gamma_ln = 2,                       !Langevin dynamics
  iwrap = 1,    ioutfm = 1,                         !wrap coordinates and output binary trajectory
  itgtmd = 1, 					    ! Targeted MD
  tgtrmsd = 0, 					    ! Value of target RMSD
  tgtfitmask = ':1-294 & !@H=', 			    ! Atoms used for rms superposition calculation between structure and reference structure
  tgtrmsmask = ':1-294 & !@H=',			    ! Atoms used for rms diff calculation
  tgtmdfrc = 1.0, 				    ! Force constant
/

--------------------------------------------------------------------------------
   1.  RESOURCE   USE:
--------------------------------------------------------------------------------

 getting box info from netcdf restart file
 NATOM  =  237495 NTYPES =      21 NBONH =  171107 MBONA  =   66651
 NTHETH =   76087 MTHETA =   18567 NPHIH =   43876 MPHIA  =   46062
 NHPARM =       0 NPARM  =       0 NNB   =  497298 NRES   =   55453
 NBONA  =   66651 NTHETA =   18567 NPHIA =   46062 NUMBND =     108
 NUMANG =     251 NPTRA  =     228 NATYP =      49 NPHB   =       0
 IFBOX  =       1 NMXRS  =      33 IFCAP =       0 NEXTRA =   53823
 NCOPY  =       0

     BOX TYPE: RECTILINEAR

--------------------------------------------------------------------------------
   2.  CONTROL  DATA  FOR  THE  RUN
--------------------------------------------------------------------------------

default_name

General flags:
     imin    =       0, nmropt  =       0

Nature and format of input:
     ntx     =       5, irest   =       1, ntrx    =       1

Nature and format of output:
     ntxo    =       2, ntpr    =      10, ntrx    =       1, ntwr    =      25
     iwrap   =       1, ntwx    =      25, ntwv    =       0, ntwe    =       0
     ioutfm  =       1, ntwprt  =       0, idecomp =       0, rbornstat=      0

Potential function:
     ntf     =       2, ntb     =       2, igb     =       0, nsnb    =      25
     ipol    =       0, gbsa    =       0, iesp    =       0
     dielc   =   1.00000, cut     =  10.00000, intdiel =   1.00000

Frozen or restrained atoms:
     ibelly  =       0, ntr     =       0

Molecular dynamics:
     nstlim  =      1000, nscm    =      1000, nrespa  =         1
     t       =   0.00000, dt      =   0.00400, vlimit  =  20.00000

Langevin dynamics temperature regulation:
     ig      =   71277
     temp0   = 300.00000, tempi   =   0.00000, gamma_ln=   2.00000

Pressure regulation:
     ntp     =       1
     pres0   =   1.00000, comp    =  44.60000, taup    =   1.00000

SHAKE:
     ntc     =       2, jfastw  =       0
     tol     =   0.00001

Extra-points options:
     frameon =       1, chngmask=       1

Targeted molecular dynamics:
     tgtrmsd =   0.00000, tgtmdfrc=   1.00000

Ewald parameters:
     verbose =       0, ew_type =       0, nbflag  =       1, use_pme =       1
     vdwmeth =       1, eedmeth =       1, netfrc  =       1
     Box X =  140.800   Box Y =  125.680   Box Z =  103.384
     Alpha =   90.000   Beta  =   90.000   Gamma =   90.000
     NFFT1 =  144       NFFT2 =  125       NFFT3 =  108
     Cutoff=   10.000   Tol   =0.100E-04
     Ewald Coefficient =  0.27511
     Interpolation order =    4

    LOADING THE TARGETED MD ATOMS AS GROUPS

   5.  REFERENCE ATOM COORDINATES

  TITL
     Mask ":1-294 & !@H=" matches  6021 atoms
     Mask ":1-294 & !@H=" matches  6021 atoms

--------------------------------------------------------------------------------
   3.  ATOMIC COORDINATES AND VELOCITIES
--------------------------------------------------------------------------------

default_name
 begin time read from input coords =  2000.000 ps

 Number of triangulated 3-point waters found:    53823

     Sum of charges from parm topology file =   0.00029654
     Forcing neutrality...

--------------------------------------------------------------------------------
   4.  RESULTS
 NSTEP =       10   TIME(PS) =    2000.040  TEMP(K) =   312.78  PRESS =  -889.3
 Etot   =   -552978.7890  EKtot   =    118066.9055  EPtot      =   -671045.6945
 BOND   =      5727.8627  ANGLE   =     12513.9687  DIHED      =     11083.1958
 1-4 NB =      5296.3563  1-4 EEL =       308.6302  VDWAALS    =     84118.1913
 EELEC  =   -913457.3058  EHBOND  =         0.0000  RESTRAINT  =    122574.8222
 EAMBER (non-restraint)  =   -793620.5167
 EKCMT  =     49584.0835  VIRIAL  =     84694.4414  VOLUME     =   1828620.4513
 CMAP   =       788.5842
                                                    Density    =         1.0535
 Ewald error estimate:   0.1386E-03
Current RMSD from reference:    6.381
Current target RMSD:            0.000
 ------------------------------------------------------------------------------

      A V E R A G E S   O V E R    1000 S T E P S

 NSTEP =     1000   TIME(PS) =    2004.000  TEMP(K) =   320.11  PRESS =    28.4
 Etot   =   -653094.6419  EKtot   =    120833.4619  EPtot      =   -773928.1038
 BOND   =      5878.3780  ANGLE   =     12766.8321  DIHED      =     11708.4731
 1-4 NB =      5410.3561  1-4 EEL =       -95.9726  VDWAALS    =     82354.2445
 EELEC  =   -900568.6718  EHBOND  =         0.0000  RESTRAINT  =      7811.7176
 EAMBER (non-restraint)  =   -781739.8215
 EKCMT  =     52406.2474  VIRIAL  =     51283.0121  VOLUME     =   1840935.9172
 CMAP   =       806.5392
                                                    Density    =         1.0464
 Ewald error estimate:   0.5560E-04
Current RMSD from reference:    0.634
Current target RMSD:            0.000
 ------------------------------------------------------------------------------

      R M S  F L U C T U A T I O N S

 NSTEP =     1000   TIME(PS) =    2004.000  TEMP(K) =    32.86  PRESS =   376.9
 Etot   =     30449.1207  EKtot   =     12404.5183  EPtot      =     21799.7631
 BOND   =       121.7650  ANGLE   =       499.2920  DIHED      =       263.7709
 1-4 NB =       120.1199  1-4 EEL =       101.5748  VDWAALS    =      2943.6947
 EELEC  =      6899.2490  EHBOND  =         0.0000  RESTRAINT  =     22014.8384
 EAMBER (non-restraint)  =      -215.0754
 EKCMT  =      4380.7073  VIRIAL  =     12623.8773  VOLUME     =      8925.1503
 CMAP   =        14.7965
                                                    Density    =         0.0051
 Ewald error estimate:   0.3956E-04
Current RMSD from reference:    0.634
Current target RMSD:            0.000
 ------------------------------------------------------------------------------
