-------------------------------------------------------
          Amber 22 PMEMD                              2022
          -------------------------------------------------------

  [-O]verwriting output

File Assignments:

 Here is the input file:

NPT heating with restraints
 &cntrl
  imin  = 0,    ntx = 5,      irest = 1,            !Don't do minimization, rea
  nstlim=250000, dt = 0.004,                        !run for 250000 steps, 4 fs
  temp0 = 300,                                      !temperature
  ntpr = 1000,  ntwr = 2500,  ntwx = 2500,          !frequency for outputs of e
  ntf = 2,	ntc = 2,                            !SHAKE
  cut = 10.0,                                       !cutoff
  ntb = 2, ntp = 1, tautp = 1.0, taup = 1.0,        !Constant pressure
  barostat = 1,                                     !Berendsen barostat, may ch
  ntt = 3,      gamma_ln = 2,                       !Langevin dynamics
  iwrap = 1,    ioutfm = 1,                         !wrap coordinates and outpu
/

Note: ig = -1. Setting random seed to   977019 based on wallclock time in
      microseconds.

--------------------------------------------------------------------------------
   1.  RESOURCE   USE:
--------------------------------------------------------------------------------

 getting box info from netcdf restart file
 NATOM  =  237495 NTYPES =      21 NBONH =  171107 MBONA  =   66651
 NTHETH =   76087 MTHETA =   18567 NPHIH =   43876 MPHIA  =   46062
 NHPARM =       0 NPARM  =       0 NNB   =  497298 NRES   =   55453
 NBONA  =   66651 NTHETA =   18567 NPHIA =   46062 NUMBND =     108
 NUMANG =     251 NPTRA  =     228 NATYP =      49 NPHB   =       0
 IFBOX  =       1 NMXRS  =      33 IFCAP =       0 NEXTRA =   53823
 NCOPY  =       0

     BOX TYPE: RECTILINEAR

--------------------------------------------------------------------------------
   2.  CONTROL  DATA  FOR  THE  RUN
--------------------------------------------------------------------------------

default_name

General flags:
     imin    =       0, nmropt  =       0

Nature and format of input:
     ntx     =       5, irest   =       1, ntrx    =       1

Nature and format of output:
     ntxo    =       2, ntpr    =    1000, ntrx    =       1, ntwr    =    2500
     iwrap   =       1, ntwx    =    2500, ntwv    =       0, ntwe    =       0
     ioutfm  =       1, ntwprt  =       0, idecomp =       0, rbornstat=      0

Potential function:
     ntf     =       2, ntb     =       2, igb     =       0, nsnb    =      25
     ipol    =       0, gbsa    =       0, iesp    =       0
     dielc   =   1.00000, cut     =  10.00000, intdiel =   1.00000

Frozen or restrained atoms:
     ibelly  =       0, ntr     =       0

Molecular dynamics:
     nstlim  =    250000, nscm    =      1000, nrespa  =         1
     t       =   0.00000, dt      =   0.00400, vlimit  =  -1.00000

Langevin dynamics temperature regulation:
     ig      =  977019
     temp0   = 300.00000, tempi   =   0.00000, gamma_ln=   2.00000

Pressure regulation:
     ntp     =       1
     pres0   =   1.00000, comp    =  44.60000, taup    =   1.00000

SHAKE:
     ntc     =       2, jfastw  =       0
     tol     =   0.00001

Extra-points options:
     frameon =       1, chngmask=       1

Ewald parameters:
     verbose =       0, ew_type =       0, nbflag  =       1, use_pme =       1
     vdwmeth =       1, eedmeth =       1, netfrc  =       1
     Box X =  140.904   Box Y =  125.772   Box Z =  103.460
     Alpha =   90.000   Beta  =   90.000   Gamma =   90.000
     NFFT1 =  144       NFFT2 =  128       NFFT3 =  108
     Cutoff=   10.000   Tol   =0.100E-04
     Ewald Coefficient =  0.27511
     Interpolation order =    4

--------------------------------------------------------------------------------
   3.  ATOMIC COORDINATES AND VELOCITIES
--------------------------------------------------------------------------------

default_name
 begin time read from input coords =  1000.000 ps

 Number of triangulated 3-point waters found:    53823

     Sum of charges from parm topology file =   0.00029654
     Forcing neutrality...

--------------------------------------------------------------------------------
   4.  RESULTS
 NSTEP =     1000   TIME(PS) =    1004.000  TEMP(K) =   300.27  PRESS =    11.7
 Etot   =   -679229.7733  EKtot   =    113344.0000  EPtot      =   -792573.7733
 BOND   =      5597.9553  ANGLE   =     12526.8084  DIHED      =     11146.8620
 UB     =         0.0000  IMP     =         0.0000  CMAP       =       778.0476
 1-4 NB =      5279.1669  1-4 EEL =        32.0017  VDWAALS    =     83447.8506
 EELEC  =   -911382.4658  EHBOND  =         0.0000  RESTRAINT  =         0.0000
 EKCMT  =     49557.3400  VIRIAL  =     49093.6687  VOLUME     =   1832769.3604
                                                    Density    =         1.0511
 ------------------------------------------------------------------------------

      A V E R A G E S   O V E R     250 S T E P S

 NSTEP =   250000   TIME(PS) =    2000.000  TEMP(K) =   300.35  PRESS =    20.0
 Etot   =   -679442.5154  EKtot   =    113374.6171  EPtot      =   -792817.1324
 BOND   =      5802.6686  ANGLE   =     12512.1235  DIHED      =     11166.7594
 UB     =         0.0000  IMP     =         0.0000  CMAP       =       794.0685
 1-4 NB =      5254.9951  1-4 EEL =       116.9889  VDWAALS    =     83079.3692
 EELEC  =   -911544.1056  EHBOND  =         0.0000  RESTRAINT  =         0.0000
 EKCMT  =     49499.5563  VIRIAL  =     48709.0318  VOLUME     =   1830387.9851
                                                    Density    =         1.0524
 ------------------------------------------------------------------------------

      R M S  F L U C T U A T I O N S

 NSTEP =   250000   TIME(PS) =    2000.000  TEMP(K) =     0.70  PRESS =    93.8
 Etot   =       483.4729  EKtot   =       265.4210  EPtot      =       417.4007
 BOND   =        71.6944  ANGLE   =        87.6315  DIHED      =        48.3320
 UB     =         0.0000  IMP     =         0.0000  CMAP       =        13.4869
 1-4 NB =        32.6571  1-4 EEL =        90.3747  VDWAALS    =       382.7089
 EELEC  =       618.1796  EHBOND  =         0.0000  RESTRAINT  =         0.0000
 EKCMT  =       182.5265  VIRIAL  =      3708.7605  VOLUME     =      1461.3756
                                                    Density    =         0.0008
 ------------------------------------------------------------------------------
