-------------------------------------------------------
          Amber 22 PMEMD                              2022
          -------------------------------------------------------

  [-O]verwriting output

File Assignments:

 Here is the input file:

NPT heating with restraints
 &cntrl
  imin  = 0,    ntx = 5,      irest = 1,            !Don't do minimization, rea
  nstlim=250000, dt = 0.004,                        !run for 250000 steps, 4 fs
  temp0 = 300,                                      !temperature
  ntpr = 1000,  ntwr = 2500,  ntwx = 2500,          !frequency for outputs of e
  ntf = 2,	ntc = 2,                            !SHAKE
  cut = 10.0,                                       !cutoff
  ntb = 2, ntp = 1, tautp = 1.0, taup = 1.0,        !Constant pressure
  barostat = 1,                                     !Berendsen barostat, may ch
  ntt = 3,      gamma_ln = 2,                       !Langevin dynamics
  iwrap = 1,    ioutfm = 1,                         !wrap coordinates and outpu
/

Note: ig = -1. Setting random seed to   113350 based on wallclock time in
      microseconds.

--------------------------------------------------------------------------------
   1.  RESOURCE   USE:
--------------------------------------------------------------------------------

 getting box info from netcdf restart file
 NATOM  =  239190 NTYPES =      21 NBONH =  172382 MBONA  =   67069
 NTHETH =   76568 MTHETA =   18567 NPHIH =   43939 MPHIA  =   46104
 NHPARM =       0 NPARM  =       0 NNB   =  500352 NRES   =   55873
 NBONA  =   67069 NTHETA =   18567 NPHIA =   46104 NUMBND =     108
 NUMANG =     251 NPTRA  =     228 NATYP =      49 NPHB   =       0
 IFBOX  =       1 NMXRS  =      33 IFCAP =       0 NEXTRA =   54241
 NCOPY  =       0

     BOX TYPE: RECTILINEAR

--------------------------------------------------------------------------------
   2.  CONTROL  DATA  FOR  THE  RUN
--------------------------------------------------------------------------------

default_name

General flags:
     imin    =       0, nmropt  =       0

Nature and format of input:
     ntx     =       5, irest   =       1, ntrx    =       1

Nature and format of output:
     ntxo    =       2, ntpr    =    1000, ntrx    =       1, ntwr    =    2500
     iwrap   =       1, ntwx    =    2500, ntwv    =       0, ntwe    =       0
     ioutfm  =       1, ntwprt  =       0, idecomp =       0, rbornstat=      0

Potential function:
     ntf     =       2, ntb     =       2, igb     =       0, nsnb    =      25
     ipol    =       0, gbsa    =       0, iesp    =       0
     dielc   =   1.00000, cut     =  10.00000, intdiel =   1.00000

Frozen or restrained atoms:
     ibelly  =       0, ntr     =       0

Molecular dynamics:
     nstlim  =    250000, nscm    =      1000, nrespa  =         1
     t       =   0.00000, dt      =   0.00400, vlimit  =  -1.00000

Langevin dynamics temperature regulation:
     ig      =  113350
     temp0   = 300.00000, tempi   =   0.00000, gamma_ln=   2.00000

Pressure regulation:
     ntp     =       1
     pres0   =   1.00000, comp    =  44.60000, taup    =   1.00000

SHAKE:
     ntc     =       2, jfastw  =       0
     tol     =   0.00001

Extra-points options:
     frameon =       1, chngmask=       1

Ewald parameters:
     verbose =       0, ew_type =       0, nbflag  =       1, use_pme =       1
     vdwmeth =       1, eedmeth =       1, netfrc  =       1
     Box X =  138.832   Box Y =  129.153   Box Z =  102.720
     Alpha =   90.000   Beta  =   90.000   Gamma =   90.000
     NFFT1 =  140       NFFT2 =  128       NFFT3 =  108
     Cutoff=   10.000   Tol   =0.100E-04
     Ewald Coefficient =  0.27511
     Interpolation order =    4

--------------------------------------------------------------------------------
   3.  ATOMIC COORDINATES AND VELOCITIES
--------------------------------------------------------------------------------

default_name
 begin time read from input coords =  1000.000 ps

 Number of triangulated 3-point waters found:    54241

     Sum of charges from parm topology file =   0.00029874
     Forcing neutrality...

--------------------------------------------------------------------------------
   4.  RESULTS
 NSTEP =     1000   TIME(PS) =    1004.000  TEMP(K) =   300.37  PRESS =    45.7
 Etot   =   -680238.2127  EKtot   =    114145.2188  EPtot      =   -794383.4314
 BOND   =      5794.8584  ANGLE   =     12596.6060  DIHED      =     11299.6001
 UB     =         0.0000  IMP     =         0.0000  CMAP       =       805.0664
 1-4 NB =      5259.9014  1-4 EEL =      7460.7079  VDWAALS    =     83648.9443
 EELEC  =   -921249.1159  EHBOND  =         0.0000  RESTRAINT  =         0.0000
 EKCMT  =     49782.4693  VIRIAL  =     47966.7554  VOLUME     =   1841859.4964
                                                    Density    =         1.0527
 ------------------------------------------------------------------------------

      A V E R A G E S   O V E R     250 S T E P S

 NSTEP =   250000   TIME(PS) =    2000.000  TEMP(K) =   300.31  PRESS =     6.8
 Etot   =   -680342.5939  EKtot   =    114122.4789  EPtot      =   -794465.0729
 BOND   =      5759.5596  ANGLE   =     12520.3534  DIHED      =     11281.9905
 UB     =         0.0000  IMP     =         0.0000  CMAP       =       773.1704
 1-4 NB =      5273.3004  1-4 EEL =      7464.4456  VDWAALS    =     83731.7823
 EELEC  =   -921269.6749  EHBOND  =         0.0000  RESTRAINT  =         0.0000
 EKCMT  =     49866.1638  VIRIAL  =     49596.8391  VOLUME     =   1842137.1872
                                                    Density    =         1.0525
 ------------------------------------------------------------------------------

      R M S  F L U C T U A T I O N S

 NSTEP =   250000   TIME(PS) =    2000.000  TEMP(K) =     0.63  PRESS =    83.4
 Etot   =       454.6164  EKtot   =       239.9295  EPtot      =       385.6657
 BOND   =        70.7372  ANGLE   =        88.1655  DIHED      =        52.3851
 UB     =         0.0000  IMP     =         0.0000  CMAP       =        14.0676
 1-4 NB =        29.8209  1-4 EEL =        83.8546  VDWAALS    =       392.7066
 EELEC  =       610.6986  EHBOND  =         0.0000  RESTRAINT  =         0.0000
 EKCMT  =       171.4825  VIRIAL  =      3335.6479  VOLUME     =      1322.8469
                                                    Density    =         0.0008
 ------------------------------------------------------------------------------
