-------------------------------------------------------
          Amber 22 SANDER                              2022
          -------------------------------------------------------

  [-O]verwriting output

File Assignments:

 Here is the input file:

NPT heating with restraints
 &cntrl
  imin  = 0,    ntx = 5,      irest = 1,            !Don't do minimization, read coordinates and velocities from restarts file
  nstlim=1000, dt = 0.004,                       !run for 1000 steps, 4 fs timestep, 1ns
  temp0 = 300,                                      !temperature
  ntpr = 10,  ntwr = 25,  ntwx = 25,          !frequency for outputs of energy, restarts, and trajectory
  ntf = 2,	ntc = 2,                            !SHAKE
  cut = 10.0,                                       !cutoff
  ntb = 2, ntp = 1, tautp = 1.0, taup = 1.0,        !Constant pressure
  barostat = 1,                                     !Berendsen barostat, may change to 2 for MC
  ntt = 3,      gamma_ln = 2,                       !Langevin dynamics
  iwrap = 1,    ioutfm = 1,                         !wrap coordinates and output binary trajectory
  itgtmd = 1, 					    ! Targeted MD
  tgtrmsd = 0, 					    ! Value of target RMSD
  tgtfitmask = ':1-294 & !@H=', 			    ! Atoms used for rms superposition calculation between structure and reference structure
  tgtrmsmask = ':1-294 & !@H=',			    ! Atoms used for rms diff calculation
  tgtmdfrc = 1.0, 				    ! Force constant
/

--------------------------------------------------------------------------------
   1.  RESOURCE   USE:
--------------------------------------------------------------------------------

 getting box info from netcdf restart file
 NATOM  =  239190 NTYPES =      21 NBONH =  172382 MBONA  =   67069
 NTHETH =   76568 MTHETA =   18567 NPHIH =   43939 MPHIA  =   46104
 NHPARM =       0 NPARM  =       0 NNB   =  500352 NRES   =   55873
 NBONA  =   67069 NTHETA =   18567 NPHIA =   46104 NUMBND =     108
 NUMANG =     251 NPTRA  =     228 NATYP =      49 NPHB   =       0
 IFBOX  =       1 NMXRS  =      33 IFCAP =       0 NEXTRA =   54241
 NCOPY  =       0

     BOX TYPE: RECTILINEAR

--------------------------------------------------------------------------------
   2.  CONTROL  DATA  FOR  THE  RUN
--------------------------------------------------------------------------------

default_name

General flags:
     imin    =       0, nmropt  =       0

Nature and format of input:
     ntx     =       5, irest   =       1, ntrx    =       1

Nature and format of output:
     ntxo    =       2, ntpr    =      10, ntrx    =       1, ntwr    =      25
     iwrap   =       1, ntwx    =      25, ntwv    =       0, ntwe    =       0
     ioutfm  =       1, ntwprt  =       0, idecomp =       0, rbornstat=      0

Potential function:
     ntf     =       2, ntb     =       2, igb     =       0, nsnb    =      25
     ipol    =       0, gbsa    =       0, iesp    =       0
     dielc   =   1.00000, cut     =  10.00000, intdiel =   1.00000

Frozen or restrained atoms:
     ibelly  =       0, ntr     =       0

Molecular dynamics:
     nstlim  =      1000, nscm    =      1000, nrespa  =         1
     t       =   0.00000, dt      =   0.00400, vlimit  =  20.00000

Langevin dynamics temperature regulation:
     ig      =   71277
     temp0   = 300.00000, tempi   =   0.00000, gamma_ln=   2.00000

Pressure regulation:
     ntp     =       1
     pres0   =   1.00000, comp    =  44.60000, taup    =   1.00000

SHAKE:
     ntc     =       2, jfastw  =       0
     tol     =   0.00001

Extra-points options:
     frameon =       1, chngmask=       1

Targeted molecular dynamics:
     tgtrmsd =   0.00000, tgtmdfrc=   1.00000

Ewald parameters:
     verbose =       0, ew_type =       0, nbflag  =       1, use_pme =       1
     vdwmeth =       1, eedmeth =       1, netfrc  =       1
     Box X =  138.865   Box Y =  129.183   Box Z =  102.745
     Alpha =   90.000   Beta  =   90.000   Gamma =   90.000
     NFFT1 =  144       NFFT2 =  135       NFFT3 =  108
     Cutoff=   10.000   Tol   =0.100E-04
     Ewald Coefficient =  0.27511
     Interpolation order =    4

    LOADING THE TARGETED MD ATOMS AS GROUPS

   5.  REFERENCE ATOM COORDINATES

  TITL
     Mask ":1-294 & !@H=" matches  6021 atoms
     Mask ":1-294 & !@H=" matches  6021 atoms

--------------------------------------------------------------------------------
   3.  ATOMIC COORDINATES AND VELOCITIES
--------------------------------------------------------------------------------

default_name
 begin time read from input coords =  2000.000 ps

 Number of triangulated 3-point waters found:    54241

     Sum of charges from parm topology file =   0.00029874
     Forcing neutrality...

--------------------------------------------------------------------------------
   4.  RESULTS
 NSTEP =       10   TIME(PS) =    2000.040  TEMP(K) =   313.33  PRESS =  -857.4
 Etot   =   -540273.8232  EKtot   =    119069.9642  EPtot      =   -659343.7873
 BOND   =      5711.9093  ANGLE   =     12549.7954  DIHED      =     11295.4117
 1-4 NB =      5330.8653  1-4 EEL =      7393.5000  VDWAALS    =     84341.3878
 EELEC  =   -921572.2296  EHBOND  =         0.0000  RESTRAINT  =    134856.5436
 EAMBER (non-restraint)  =   -794200.3309
 EKCMT  =     50122.7953  VIRIAL  =     84227.9464  VOLUME     =   1842204.4503
 CMAP   =       749.0293
                                                    Density    =         1.0525
 Ewald error estimate:   0.3664E-04
Current RMSD from reference:    6.693
Current target RMSD:            0.000
 ------------------------------------------------------------------------------

      A V E R A G E S   O V E R    1000 S T E P S

 NSTEP =     1000   TIME(PS) =    2004.000  TEMP(K) =   322.41  PRESS =    25.3
 Etot   =   -652017.9531  EKtot   =    122518.9432  EPtot      =   -774536.8963
 BOND   =      5822.4702  ANGLE   =     12831.2262  DIHED      =     11856.6081
 1-4 NB =      5459.3420  1-4 EEL =      7355.4058  VDWAALS    =     83084.1218
 EELEC  =   -909745.6910  EHBOND  =         0.0000  RESTRAINT  =      8025.1203
 EAMBER (non-restraint)  =   -782562.0167
 EKCMT  =     53147.5988  VIRIAL  =     52137.8394  VOLUME     =   1855104.9053
 CMAP   =       774.5003
                                                    Density    =         1.0452
 Ewald error estimate:   0.5720E-04
Current RMSD from reference:    0.509
Current target RMSD:            0.000
 ------------------------------------------------------------------------------

      R M S  F L U C T U A T I O N S

 NSTEP =     1000   TIME(PS) =    2004.000  TEMP(K) =    36.27  PRESS =   442.5
 Etot   =     33814.4179  EKtot   =     13781.4658  EPtot      =     24238.2306
 BOND   =       124.1644  ANGLE   =       535.9762  DIHED      =       269.6015
 1-4 NB =       127.5099  1-4 EEL =        93.0932  VDWAALS    =      2990.4318
 EELEC  =      7207.5905  EHBOND  =         0.0000  RESTRAINT  =     24293.9385
 EAMBER (non-restraint)  =       -55.7079
 EKCMT  =      4857.1498  VIRIAL  =     15003.0208  VOLUME     =     10511.3432
 CMAP   =        14.3796
                                                    Density    =         0.0060
 Ewald error estimate:   0.4275E-04
Current RMSD from reference:    0.509
Current target RMSD:            0.000
 ------------------------------------------------------------------------------
